Circuit: * C:\Users\Aorus\Documents\GitHub\ITMO\5sem\electroChema\lab1\tran1.asc

Direct Newton iteration for .op point succeeded.

Date: Wed Sep 11 17:45:57 2024
Total elapsed time: 0.099 seconds.

tnom = 27
temp = 27
method = modified trap
totiter = 2091
traniter = 2088
tranpoints = 1045
accept = 1045
rejected = 0
matrix size = 1
fillins = 0
solver = Normal
Avg thread counts: 1.7/2.3/2.3/1.7
Matrix Compiler1: off  0.1/[0.0]/0.1
Matrix Compiler2:       4 opcodes  0.1/[0.1]/0.5

