Circuit: * C:\Users\Aorus\Documents\GitHub\ITMO\5sem\electroChema\lab2\tran1.asc

Direct Newton iteration for .op point succeeded.

Date: Wed Sep 11 18:12:20 2024
Total elapsed time: 0.084 seconds.

tnom = 27
temp = 27
method = modified trap
totiter = 1015
traniter = 1012
tranpoints = 507
accept = 483
rejected = 24
matrix size = 3
fillins = 0
solver = Normal
Avg thread counts: 2.4/3.8/3.8/2.4
Matrix Compiler1:       3 opcodes  0.1/[0.1]/0.2
Matrix Compiler2: off  [0.1]/0.1/0.2

