Circuit: * C:\Users\Aorus\Documents\GitHub\ITMO\5sem\electroChema\lab2\tran2.asc

Direct Newton iteration for .op point succeeded.

Date: Wed Sep 11 19:03:08 2024
Total elapsed time: 0.065 seconds.

tnom = 27
temp = 27
method = modified trap
totiter = 3401
traniter = 3398
tranpoints = 1700
accept = 1677
rejected = 23
matrix size = 4
fillins = 0
solver = Normal
Avg thread counts: 1.4/1.8/1.8/1.4
Matrix Compiler1:       8 opcodes  0.1/[0.1]/0.1
Matrix Compiler2: off  [0.1]/0.1/0.1

